// Generated for: spectre
// Generated on: Oct  5 20:55:38 2017
// Design library name: ee315
// Design cell name: example_cs
// Design view name: schematic
simulator lang=spectre
global 0 vdd!
