simulator lang=spectre
include "nmos.scs"
