// Generated for: spectre
// Generated on: Oct 25 12:07:38 2017
// Design library name: hw4
// Design cell name: hw4_cds_flicker
// Design view name: schematic
simulator lang=spectre
global 0 p2! p1!
